test/test_files/validation_tests/case2383wp_res.m
function mpc = case2383wp_res
%CASE2383WP_RES

%% MATPOWER Case Format : Version 2
mpc.version = '2';

%%-----  Power Flow Data  -----%%
%% system MVA base
mpc.baseMVA = 100;

%% bus data
%	bus_i	type	Pd	Qd	Gs	Bs	area	Vm	Va	baseKV	zone	Vmax	Vmin
mpc.bus = [
	1	1	0	0	0	0	1	0.996430259	-0.85321047	220	1	1.11	0.95;
	2	1	0	0	0	0	1	0.994588812	-0.362861983	220	1	1.11	0.95;
	3	1	0	0	0	0	1	0.968453575	-30.1985809	220	1	1.11	0.95;
	4	1	0	0	0	0	1	0.967229714	-9.02484484	220	1	1.11	0.95;
	5	1	0	0	0	0	1	0.98467574	-22.1657172	220	1	1.11	0.95;
	6	1	0	0	0	0	1	0.972385469	-15.5371868	400	1	1.05	0.95;
	7	1	0	0	0	0	1	0.969175999	-24.7899142	220	1	1.11	0.95;
	8	1	0	0	0	0	1	0.979101614	-11.6141595	400	1	1.05	0.95;
	9	1	0	0	0	0	1	0.965193096	-18.904138	400	1	1.05	0.95;
	10	2	12.23	9	0	0	1	1	-23.316259	220	1	1.11	0.95;
	11	1	0	0	0	0	1	0.974505823	-7.28327764	220	1	1.11	0.95;
	12	1	0	0	0	0	1	0.964945916	-27.3229082	220	1	1.11	0.95;
	13	1	0	0	0	0	1	0.972689201	-24.790388	220	1	1.11	0.95;
	14	1	0	0	0	0	1	0.969708373	-5.05318414	220	1	1.11	0.95;
	15	1	0	0	0	0	1	0.9463175	-17.9345979	400	1	1.05	0.95;
	16	2	54.88	100	0	0	1	1	-0.244043995	220	1	1.11	0.95;
	17	2	77	150	0	0	1	1	0.66830341	220	1	1.11	0.95;
	18	3	153	350	0	0	1	1	0	400	1	1.05	0.95;
	19	1	0	0	0	0	1	0.97448058	-26.156054	220	1	1.11	0.95;
	20	1	0	0	0	0	1	0.994884212	-2.15903257	400	1	1.05	0.95;
	21	1	0	0	0	0	1	0.970697354	-25.3389931	220	1	1.11	0.95;
	22	1	0	0	0	0	1	0.973153371	-13.3913199	220	1	1.11	0.95;
	23	1	0	0	0	0	1	0.990097898	-18.8757396	220	2	1.11	0.95;
	24	1	0	0	0	0	1	0.991190764	-13.5629923	220	2	1.11	0.95;
	25	1	0	0	0	0	1	0.993483689	-11.9212159	220	2	1.11	0.95;
	26	1	0	0	0	0	1	0.985349341	-22.2465142	220	2	1.11	0.95;
	27	1	0	0	0	0	1	0.982851747	-10.9712404	220	2	1.11	0.95;
	28	1	0	0	0	0	1	0.982828487	-10.96583	220	2	1.11	0.95;
	29	2	25.98	60	0	0	1	1	-17.1760663	220	2	1.11	0.95;
	30	2	25.98	60	0	0	1	1	-17.1766249	220	2	1.11	0.95;
	31	2	20.98	50	0	0	1	1	-12.2720284	400	2	1.05	0.95;
	32	1	0	0	0	0	1	0.999583156	-12.3127057	400	2	1.05	0.95;
	33	1	0	0	0	0	1	0.978516583	-11.9165108	220	2	1.11	0.95;
	34	1	0	0	0	0	1	1.00517458	-11.5917837	400	2	1.05	0.95;
	35	1	0	0	0	0	1	1.00517794	-11.6006314	400	2	1.05	0.95;
	36	1	0	0	0	0	1	0.966131498	-15.7968192	400	2	1.05	0.95;
	37	1	0	0	0	0	1	0.990741801	-20.0696833	220	2	1.11	0.95;
	38	1	0	0	0	0	1	0.990731557	-20.0685458	220	2	1.11	0.95;
	39	1	0	0	0	0	1	0.98912392	-10.7945172	400	2	1.05	0.95;
	40	1	0	0	0	0	1	0.989079941	-10.7831406	400	2	1.05	0.95;
	41	2	11.99	30	0	0	1	1	-9.53774254	220	2	1.11	0.95;
	42	2	11.99	30	0	0	1	1	-9.5515467	220	2	1.11	0.95;
	43	2	23.98	60	0	0	1	1	-8.02412666	400	2	1.05	0.95;
	44	2	23.98	60	0	0	1	1	-8.0383066	400	2	1.05	0.95;
	45	2	159.84	75	0	0	1	1	-18.4075957	220	2	1.11	0.95;
	46	1	0	0	0	0	1	0.999982402	-18.4057218	220	2	1.11	0.95;
	47	1	0	0	0	0	1	0.981323978	-11.8676715	220	2	1.11	0.95;
	48	1	0	0	0	0	1	0.988948762	-17.1069127	220	2	1.11	0.95;
	49	1	0	0	0	0	1	0.988984008	-17.1124452	220	2	1.11	0.95;
	50	1	0	0	0	0	1	0.996240775	-9.65316347	400	2	1.05	0.95;
	51	1	0	0	0	0	1	0.996277587	-9.67354652	400	2	1.05	0.95;
	52	1	0	0	0	0	1	0.985124838	-14.7316348	220	2	1.11	0.95;
	53	1	0	0	0	0	1	0.987524013	-14.6063177	220	2	1.11	0.95;
	54	1	0	0	0	0	1	0.993787818	-11.8418213	220	2	1.11	0.95;
	55	1	0	0	0	0	1	0.99097946	-18.9390182	220	2	1.11	0.95;
	56	1	0	0	0	0	1	0.998033732	-4.1946706	220	3	1.11	0.95;
	57	1	22.98	10.96	0	0	1	0.997271055	-7.93250034	220	3	1.11	0.95;
	58	1	21.98	5.79	0	0	1	0.997533135	-7.93258703	220	3	1.11	0.95;
	59	1	0	0	0	0	1	0.995751753	1.88122671	220	3	1.11	0.95;
	60	1	0	0	0	0	1	0.996246961	-3.69433433	220	3	1.11	0.95;
	61	1	0	0	0	0	1	0.998994549	3.84136424	220	3	1.11	0.95;
	62	1	0	0	0	0	1	0.99897135	3.84326908	220	3	1.11	0.95;
	63	2	37.37	52.69	0	0	1	1	2.3312522	220	3	1.11	0.95;
	64	2	35.37	55.32	0	0	1	1	2.15040299	220	3	1.11	0.95;
	65	1	13.39	2.02	0	0	1	0.996305482	-0.140915638	220	3	1.11	0.95;
	66	1	0	0	0	0	1	1.02371483	-9.82337926	220	3	1.11	0.95;
	67	2	60.4	92.1	0	0	1	1	-7.68263713	400	3	1.05	0.95;
	68	1	0	0	0	0	1	1.00740804	-7.73382675	220	3	1.11	0.95;
	69	1	0	0	0	0	1	0.997813645	0.194017391	220	3	1.11	0.95;
	70	1	0	0	0	0	1	1.00342391	-3.23621031	220	3	1.11	0.95;
	71	1	0	0	0	0	1	0.995497332	-0.912500166	220	3	1.11	0.95;
	72	1	0	0	0	0	1	0.995497332	-0.912500166	220	3	1.11	0.95;
	73	1	0	0	0	0	1	1.00904264	-2.37279183	220	3	1.11	0.95;
	74	1	0	0	0	0	1	1.00594978	-3.44813401	220	3	1.11	0.95;
	75	1	0	0	0	0	1	0.984855289	-2.54292907	400	3	1.05	0.95;
	76	1	0	0	0	0	1	0.98489639	-2.54776899	400	3	1.05	0.95;
	77	1	0	0	0	0	1	0.995098659	-1.49955738	220	3	1.11	0.95;
	78	1	0	0	0	0	1	0.994325146	-5.21474534	220	3	1.11	0.95;
	79	1	0	0	0	0	1	0.996377009	-0.0995083993	220	3	1.11	0.95;
	80	1	0	0	0	0	1	0.997986504	-7.87243518	220	3	1.11	0.95;
	81	1	0	0	0	0	1	0.997990016	-7.87194792	220	3	1.11	0.95;
	82	1	0	0	0	0	1	0.995037353	2.4898932	220	3	1.11	0.95;
	83	2	15.99	22.97	0	0	1	1	0.177150345	220	3	1.11	0.95;
	84	2	15.79	22.27	0	0	1	1	0.176072214	220	3	1.11	0.95;
	85	2	9.99	17.01	0	0	1	1	-1.44915946	220	3	1.11	0.95;
	86	2	9.99	16.66	0	0	1	1	-1.44596347	220	3	1.11	0.95;
	87	1	11.09	16.22	0	0	1	0.993882662	-2.25782068	220	3	1.11	0.95;
	88	1	0	0	0	0	1	0.993882337	-2.25910417	220	3	1.11	0.95;
	89	1	0	0	0	0	1	0.992941406	-0.22223751	220	3	1.11	0.95;
	90	1	0	0	0	0	1	0.99856349	-1.24547298	220	3	1.11	0.95;
	91	1	0	0	0	0	1	0.995359687	0.358235212	220	3	1.11	0.95;
	92	1	0	0	0	0	1	0.985890046	-6.0867691	400	3	1.05	0.95;
	93	2	9.99	16.39	0	0	1	1	0.967995635	220	3	1.11	0.95;
	94	1	0	0	0	0	1	0.999973211	0.966582481	220	3	1.11	0.95;
	95	2	6.89	8.15	0	0	1	1	0.748206355	220	3	1.11	0.95;
	96	1	0	0	0	0	1	0.999999353	0.742722356	220	3	1.11	0.95;
	97	2	8.69	5.26	0	0	1	1	-4.85394292	220	3	1.11	0.95;
	98	1	0	0	0	0	1	0.987196351	-8.56052072	400	3	1.05	0.95;
	99	1	0	0	0	0	1	0.987311936	-8.54948229	400	3	1.05	0.95;
	100	1	0	0	0	0	1	0.986746512	-5.64813174	400	3	1.05	0.95;
	101	1	0	0	0	0	1	0.986741671	-5.63755509	400	3	1.05	0.95;
	102	1	0	0	0	0	1	0.99451097	-0.113936732	220	3	1.11	0.95;
	103	2	18.09	23.76	0	0	1	1	-1.44933564	220	3	1.11	0.95;
	104	2	33.68	46.11	0	0	1	1	-1.44141094	220	3	1.11	0.95;
	105	2	33.78	62.95	0	0	1	1	-5.53696019	400	3	1.05	0.95;
	106	1	0	0	0	0	1	0.999717948	-5.54905028	400	3	1.05	0.95;
	107	1	0	0	0	0	1	1.00105023	-3.60589833	220	3	1.11	0.95;
	108	1	0	0	0	0	1	1.00329059	-3.40469572	220	3	1.11	0.95;
	109	2	1	22.36	0	0	1	1	4.73404015	220	3	1.11	0.95;
	110	2	1	22.18	0	0	1	1	4.73578793	220	3	1.11	0.95;
	111	2	26.49	18	0	0	1	1	-15.4848386	220	4	1.11	0.95;
	112	1	0	0	0	0	1	0.999876821	-15.478351	220	4	1.11	0.95;
	113	1	0	0	0	0	1	0.958460878	-30.0054973	220	4	1.11	0.95;
	114	1	0	0	0	0	1	0.970723934	-29.10641	220	4	1.11	0.95;
	115	1	0	0	0	0	1	0.935050043	-24.5195535	400	4	1.05	0.95;
	116	1	0	0	0	0	1	0.934932408	-24.5038977	400	4	1.05	0.95;
	117	1	0	0	0	0	1	0.976343374	-34.4282875	220	4	1.11	0.95;
	118	1	0	0	0	0	1	0.966331984	-45.1260707	220	4	1.11	0.95;
	119	1	0	0	0	0	1	0.966331984	-45.1260707	220	4	1.11	0.95;
	120	1	0	0	0	0	1	0.951984988	-42.9938197	220	4	1.11	0.95;
	121	1	0	0	0	0	1	0.96751484	-30.439364	220	4	1.11	0.95;
	122	1	0	0	0	0	1	0.96751484	-30.439364	220	4	1.11	0.95;
	123	2	5.5	7	0	0	1	1	-21.322936	220	4	1.11	0.95;
	124	2	8.79	17	0	0	1	1	-21.3160388	220	4	1.11	0.95;
	125	2	35.7	18.3	0	0	1	1	-41.1651876	220	4	1.11	0.95;
	126	1	25.28	15.9	0	0	1	1.00003055	-41.1502542	220	4	1.11	0.95;
	127	2	25.71	15.3	0	0	1	1	-32.4476836	400	4	1.05	0.95;
	128	1	0	0	0	0	1	0.999863553	-32.456194	400	4	1.05	0.95;
	129	1	0	0	0	0	1	0.96131663	-37.6594879	220	4	1.11	0.95;
	130	1	0	0	0	0	1	0.937920003	-38.8505301	220	4	1.11	0.95;
	131	2	68.67	70	0	0	1	1	-26.1095678	220	4	1.11	0.95;
	132	2	33	45	0	0	1	1	-26.1277361	220	4	1.11	0.95;
	133	1	0	0	0	0	1	0.98606347	-25.5689217	400	4	1.05	0.95;
	134	1	0	0	0	0	1	0.986141859	-25.5702085	400	4	1.05	0.95;
	135	1	0	0	0	0	1	0.965435632	-45.0029123	220	4	1.11	0.95;
	136	1	0	0	0	0	1	0.965435632	-45.0029123	220	4	1.11	0.95;
	137	1	0	0	0	0	1	0.940950756	-19.6553453	400	4	1.05	0.95;
	138	1	0	0	0	0	1	0.940950756	-19.6553453	400	4	1.05	0.95;
	139	2	33.2	22.6	0	0	1	1	-21.6378496	220	4	1.11	0.95;
	140	2	29.23	19.6	0	0	1	1	-21.6475997	220	4	1.11	0.95;
	141	1	0	0	0	0	1	0.976767142	-41.1370308	220	4	1.11	0.95;
	142	1	0	0	0	0	1	0.963517727	-45.3757106	220	4	1.11	0.95;
	143	1	0	0	0	0	1	0.983556946	-36.3347715	220	4	1.11	0.95;
	144	1	0	0	0	0	1	0.983456239	-36.3337565	220	4	1.11	0.95;
	145	1	0	0	0	0	1	0.911445826	-36.041249	400	4	1.05	0.95;
	146	1	0	0	0	0	1	0.911445826	-36.041249	400	4	1.05	0.95;
	147	1	0	0	0	0	1	0.952920262	-34.9337637	220	4	1.11	0.95;
	148	1	0	0	0	0	1	0.952982633	-34.9271824	220	4	1.11	0.95;
	149	1	0	0	0	0	1	0.979982913	-37.1525998	220	4	1.11	0.95;
	150	1	0	0	0	0	1	0.96281846	-29.0854561	220	4	1.11	0.95;
	151	1	0	0	0	0	1	0.962841222	-29.0942996	220	4	1.11	0.95;
	152	1	0	0	0	0	1	0.96159665	-25.1863051	220	4	1.11	0.95;
	153	1	0	0	0	0	1	0.96159665	-25.1863051	220	4	1.11	0.95;
	154	1	0	0	0	0	1	0.937160614	-37.1498698	220	4	1.11	0.95;
	155	1	0	0	0	0	1	0.969904701	-30.7580754	220	5	1.11	0.95;
	156	1	0	0	0	0	1	1.0436266	-35.1909853	220	5	1.11	0.95;
	157	1	0	0	0	0	1	0.976180714	-33.1274248	400	5	1.05	0.95;
	158	1	0	0	0	0	1	0.976164841	-33.1200504	400	5	1.05	0.95;
	159	1	0	0	0	0	1	0.982802074	-29.9796557	400	5	1.05	0.95;
	160	1	0	0	0	0	1	0.982885701	-29.9871173	400	5	1.05	0.95;
	161	1	0	0	0	0	1	0.976601469	-35.83162	220	5	1.11	0.95;
	162	1	0	0	0	0	1	0.976613863	-35.8332226	220	5	1.11	0.95;
	163	1	0	0	0	0	1	1.0096531	-29.8873628	220	5	1.11	0.95;
	164	1	0	0	0	0	1	1.00962353	-29.8933563	220	5	1.11	0.95;
	165	1	0	0	0	0	1	0.937534672	-27.5843379	400	5	1.05	0.95;
	166	1	0	0	0	0	1	0.979906991	-29.8434218	220	5	1.11	0.95;
	167	1	0	0	0	0	1	0.979942498	-29.8391609	220	5	1.11	0.95;
	168	1	0	0	0	0	1	0.977403619	-31.761886	400	5	1.05	0.95;
	169	1	0	0	0	0	1	0.977361735	-31.7691446	400	5	1.05	0.95;
	170	1	0	0	0	0	1	0.971170254	-32.2666944	220	5	1.11	0.95;
	171	1	0	0	0	0	1	0.971186831	-32.2630431	220	5	1.11	0.95;
	172	1	0	0	0	0	1	0.983899369	-31.7061848	220	5	1.11	0.95;
	173	1	0	0	0	0	1	0.983854884	-31.7063059	220	5	1.11	0.95;
	174	1	0	0	0	0	1	0.970321684	-29.9517231	220	5	1.11	0.95;
	175	1	0	0	0	0	1	0.970332833	-29.9587185	220	5	1.11	0.95;
	176	2	0	40	0	0	1	1	-28.6687575	400	5	1.05	0.95;
	177	2	0	40	0	0	1	1	-28.6660483	400	5	1.05	0.95;
	178	1	0	0	0	0	1	0.998146403	-37.437662	220	5	1.11	0.95;
	179	1	0	0	0	0	1	0.998190838	-37.4320427	220	5	1.11	0.95;
	180	2	339.85	49.6	0	0	2	1	-8.45051302	400	6	1.05	0.95;
	181	2	0	0	0	0	3	1	-10.4052591	220	6	1.11	0.95;
	182	2	0	0	0	0	5	1	-25.3390887	400	6	1.05	0.95;
	183	1	150	0	0	0	3	1.01106439	-12.5981087	400	6	1.05	0.95;
	184	2	317.34	50.3	0	0	2	1	-4.7086396	220	6	1.11	0.95;
	185	2	362.43	36.7	0	0	2	1	-9.25453939	400	6	1.05	0.95;
	186	2	33.33	1	0	0	5	1	-41.3111973	220	6	1.11	0.95;
	187	1	7.12	1.5	0	0	1	0.968792199	-29.607122	110	1	1.12	0.95;
	188	1	7.63	1	0	0	1	0.934766952	-37.6579671	110	1	1.12	0.95;
	189	1	9.77	8.7	0	0	1	0.923479366	-34.2567591	110	1	1.12	0.95;
	190	1	6.12	1.5	0	0	1	1.00093519	-5.87887247	110	1	1.12	0.95;
	191	1	6.12	1.6	0	0	1	0.998410368	-7.39557841	110	1	1.12	0.95;
	192	2	30.56	12	0	0	1	1	-24.7845441	110	1	1.12	0.95;
	193	1	15.28	3	0	0	1	1.00286974	-24.7061279	110	1	1.12	0.95;
	194	1	0	0	0	0	1	1.00063311	-25.0356511	110	1	1.12	0.95;
	195	1	8.14	2	0	0	1	0.997066358	-31.2457556	110	1	1.12	0.95;
	196	2	6.92	1.5	0	0	1	1	-39.6000827	110	1	1.12	0.95;
	197	1	6.92	1.5	0	0	1	0.976515183	-17.4950106	110	1	1.12	0.95;
	198	2	12.32	1.7	0	0	1	1	-31.4155675	110	1	1.12	0.95;
	199	1	1.43	0.5	0	0	1	1.00553587	-9.00137281	110	1	1.12	0.95;
	200	1	1.08	0.5	0	0	1	1.00046815	-29.9940681	110	1	1.12	0.95;
...
];

%% generator data
%	bus	Pg	Qg	Qmax	Qmin	Vg	mBase	status	Pmax	Pmin	Pc1	Pc2	Qc1min	Qc1max	Qc2min	Qc2max	ramp_agc	ramp_10	ramp_30	ramp_q	apf
mpc.gen = [
	10	400	93.3576569	120	0	1	168	1	400	70	0	0	0	0	0	0	0	0	0	0	0;
	16	720	-56.2171398	440	-40	1	823	1	720	120	0	0	0	0	0	0	0	0	0	0	0;
	17	1080	44.7569144	660	-60	1	1234	1	1080	120	0	0	0	0	0	0	0	0	0	0	0;
	18	2652.31833	1026.47955	1540	-140	1	2879	1	2520	120	0	0	0	0	0	0	0	0	0	0	0;
	29	70	-136.286195	240	0	1	511	1	400	70	0	0	0	0	0	0	0	0	0	0	0;
	30	70	70.747106	240	0	1	511	1	800	70	0	0	0	0	0	0	0	0	0	0	0;
	31	1000	635.547551	350	0	1	420	1	1000	150	0	0	0	0	0	0	0	0	0	0	0;
	41	200	-75.957372	120	0	1	241	1	200	70	0	0	0	0	0	0	0	0	0	0	0;
	42	70	56.4023081	120	0	1	241	1	410	70	0	0	0	0	0	0	0	0	0	0	0;
	43	410	214.125963	240	0	1	482	1	410	70	0	0	0	0	0	0	0	0	0	0	0;
	44	410	106.370021	240	0	1	482	1	410	70	0	0	0	0	0	0	0	0	0	0	0;
	45	42.2	116.397739	21	0	1	49	1	42.2	39.14	0	0	0	0	0	0	0	0	0	0	0;
	63	650	18.4723995	302	0	1	473	1	650	145	0	0	0	0	0	0	0	0	0	0	0;
	64	450	12.9833505	311	2	1	475	1	450	145	0	0	0	0	0	0	0	0	0	0	0;
	67	750	753.050322	449	0	1	864	1	750	220	0	0	0	0	0	0	0	0	0	0	0;
	83	225	33.7972054	190	-89	1	239	1	225	140	0	0	0	0	0	0	0	0	0	0	0;
	84	225	5.06502438	190	-89	1	251	1	225	140	0	0	0	0	0	0	0	0	0	0	0;
	85	120	46.7047819	125	-50	1	133	1	120	40	0	0	0	0	0	0	0	0	0	0	0;
	86	120	53.5637107	125	-50	1	133	1	120	40	0	0	0	0	0	0	0	0	0	0	0;
	93	120	57.9589747	90	5	1	123	1	120	80	0	0	0	0	0	0	0	0	0	0	0;
	95	110	26.6041944	68	27	1	105	1	110	50	0	0	0	0	0	0	0	0	0	0	0;
	97	87.6	30.2040091	68	27	1	105	1	87.6	83.26	0	0	0	0	0	0	0	0	0	0	0;
	103	160	-150.360643	177	-82	1	239	1	400	160	0	0	0	0	0	0	0	0	0	0	0;
	104	225	50.0441007	379	-177	1	490	1	225	140	0	0	0	0	0	0	0	0	0	0	0;
	105	430	331.263374	353	-165	1	502	1	430	160	0	0	0	0	0	0	0	0	0	0	0;
	109	250	6.71965081	65	0	1	277	1	250	80	0	0	0	0	0	0	0	0	0	0	0;
	110	250	6.9176096	65	0	1	280	1	250	80	0	0	0	0	0	0	0	0	0	0	0;
	111	360	160.647215	270	0	1	401	1	360	40	0	0	0	0	0	0	0	0	0	0	0;
	123	20	39.5415312	40	0	1	98	1	110	20	0	0	0	0	0	0	0	0	0	0	0;
	124	125	34.2686275	90	0	1	132	1	125	45	0	0	0	0	0	0	0	0	0	0	0;
	125	70	135.534822	360	0	1	654	1	860	70	0	0	0	0	0	0	0	0	0	0	0;
	127	690	349.793433	360	0	1	540	1	690	70	0	0	0	0	0	0	0	0	0	0	0;
	131	645.377	-72.1681678	360	0	1	696	1	1060	70	0	0	0	0	0	0	0	0	0	0	0;
	132	70	-100.554697	480	0	1	732	1	600	70	0	0	0	0	0	0	0	0	0	0	0;
	139	408.67	66.1493072	360	0	1	714	1	600	70	0	0	0	0	0	0	0	0	0	0	0;
	140	200	77.9260003	120	0	1	240	1	200	70	0	0	0	0	0	0	0	0	0	0	0;
	176	600	267.088876	220	-120	1	430	1	600	70	0	0	0	0	0	0	0	0	0	0	0;
	177	200	116.888141	220	-120	1	430	1	200	70	0	0	0	0	0	0	0	0	0	0	0;
	180	0	74.7543272	99999	-99999	1	7485	1	0	0	0	0	0	0	0	0	0	0	0	0	0;
	181	175	-12.4106003	99999	-99999	1	210	1	175	174	0	0	0	0	0	0	0	0	0	0	0;
	182	307.59	784.668725	99999	-99999	1	13465	1	307.59	306	0	0	0	0	0	0	0	0	0	0	0;
	184	0	114.862431	99999	-99999	1	8353	1	0	0	0	0	0	0	0	0	0	0	0	0	0;
	185	0	62.9181575	99999	-99999	1	14254	1	0	0	0	0	0	0	0	0	0	0	0	0	0;
	186	0	-0.385196709	99999	-99999	1	7401	1	0	0	0	0	0	0	0	0	0	0	0	0	0;
	192	95	-20.5360594	50	0	1	114	1	95	90.25	0	0	0	0	0	0	0	0	0	0	0;
	196	0.9	4.42422583	1	0	1	1	1	0.9	0.86	0	0	0	0	0	0	0	0	0	0	0;
	198	0.8	9.54516571	1	0	1	1	1	0.8	0.76	0	0	0	0	0	0	0	0	0	0	0;
	205	15	-0.224484611	10	0	1	18	1	15	14.25	0	0	0	0	0	0	0	0	0	0	0;
	213	11	53.3079252	8	0	1	13	1	11	10.45	0	0	0	0	0	0	0	0	0	0	0;
	264	2.5	12.1832897	2	0	1	3	1	2.5	2.38	0	0	0	0	0	0	0	0	0	0	0;
	269	6	-1.79563004	5	0	1	7	1	6	5.7	0	0	0	0	0	0	0	0	0	0	0;
	277	70	36.6212353	42	0	1	84	1	70	66.5	0	0	0	0	0	0	0	0	0	0	0;
	278	60	19.8380567	40	0	1	72	1	60	57	0	0	0	0	0	0	0	0	0	0	0;
	279	60	12.6032834	40	0	1	72	1	60	57	0	0	0	0	0	0	0	0	0	0	0;
	281	120	-7.35806778	90	0	1	144	1	120	114	0	0	0	0	0	0	0	0	0	0	0;
	282	40	-6.63702496	40	0	1	48	1	40	38	0	0	0	0	0	0	0	0	0	0	0;
	289	2.5	30.6335965	3	0	1	3	1	2.5	2.38	0	0	0	0	0	0	0	0	0	0	0;
	294	2	40.329042	1	0	1	2	1	2	1.9	0	0	0	0	0	0	0	0	0	0	0;
	314	1.5	21.411332	1	0	1	2	1	1.5	1.43	0	0	0	0	0	0	0	0	0	0	0;
	328	44	3.15146414	21	0	1	53	1	44	41.8	0	0	0	0	0	0	0	0	0	0	0;
	329	44	24.3579682	21	0	1	53	1	44	41.8	0	0	0	0	0	0	0	0	0	0	0;
	330	44	-33.1184876	21	0	1	53	1	44	41.8	0	0	0	0	0	0	0	0	0	0	0;
	331	43	3.16213722	21	0	1	52	1	43	40.85	0	0	0	0	0	0	0	0	0	0	0;
	334	1.5	18.5629737	1	0	1	2	1	1.5	1.43	0	0	0	0	0	0	0	0	0	0	0;
	346	200	-39.7319313	120	0	1	180	1	200	70	0	0	0	0	0	0	0	0	0	0	0;
	347	10	-36.6845515	15	0	1	12	1	10	10	0	0	0	0	0	0	0	0	0	0	0;
	359	1.5	-8.9644934	1	0	1	2	1	1.5	1.43	0	0	0	0	0	0	0	0	0	0	0;
	365	5.1	13.6332979	3	0	1	6	1	5.1	4.85	0	0	0	0	0	0	0	0	0	0	0;
	382	8	23.3437159	5	0	1	10	1	8	7.6	0	0	0	0	0	0	0	0	0	0	0;
	383	8	73.8485391	5	0	1	10	1	8	7.6	0	0	0	0	0	0	0	0	0	0	0;
	385	6	46.3622039	4	0	1	7	1	6	5.7	0	0	0	0	0	0	0	0	0	0	0;
	390	4.5	7.53338492	3	0	1	5	1	4.5	4.28	0	0	0	0	0	0	0	0	0	0	0;
	395	10	-3.73818067	8	0	1	12	1	10	9.5	0	0	0	0	0	0	0	0	0	0	0;
	404	3	15.821256	3	0	1	4	1	3	2.85	0	0	0	0	0	0	0	0	0	0	0;
	426	3.2	42.2032631	2	0	1	4	1	3.2	3.04	0	0	0	0	0	0	0	0	0	0	0;
	444	1	3.9455027	1	0	1	1	1	1	0.95	0	0	0	0	0	0	0	0	0	0	0;
	451	4.5	43.470428	3	0	1	5	1	4.5	4.28	0	0	0	0	0	0	0	0	0	0	0;
	482	1	-34.1974348	1	0	1	1	1	1	0.95	0	0	0	0	0	0	0	0	0	0	0;
	492	2	-0.232368359	1	0	1	2	1	2	1.9	0	0	0	0	0	0	0	0	0	0	0;
	493	234	-22.4834023	130	0	1	281	1	234	222.3	0	0	0	0	0	0	0	0	0	0	0;
	494	234	76.900255	130	0	1	281	1	234	222.3	0	0	0	0	0	0	0	0	0	0	0;
	514	115	83.7293349	90	0	1	138	1	115	109.25	0	0	0	0	0	0	0	0	0	0	0;
	515	115	138.147758	90	0	1	138	1	115	109.25	0	0	0	0	0	0	0	0	0	0	0;
	525	6	26.4455807	4	0	1	7	1	6	5.7	0	0	0	0	0	0	0	0	0	0	0;
	536	6	35.6226811	6	0	1	7	1	6	5.7	0	0	0	0	0	0	0	0	0	0	0;
	537	3.5	16.5972166	3	0	1	4	1	3.5	3.33	0	0	0	0	0	0	0	0	0	0	0;
	556	2.7	15.7381182	1	0	1	3	1	2.7	2.57	0	0	0	0	0	0	0	0	0	0	0;
	580	1.6	-11.4359536	1	0	1	2	1	1.6	1.52	0	0	0	0	0	0	0	0	0	0	0;
	584	2.7	5.8535397	2	0	1	3	1	2.7	2.57	0	0	0	0	0	0	0	0	0	0	0;
	585	4	9.55260096	2	0	1	5	1	4	3.8	0	0	0	0	0	0	0	0	0	0	0;
	607	0.8	-8.70609385	0	0	1	1	1	0.8	0.76	0	0	0	0	0	0	0	0	0	0	0;
	612	152.955	29.2438509	120	0	1	256	1	200	70	0	0	0	0	0	0	0	0	0	0	0;
	613	200	30.7675565	120	0	1	256	1	200	70	0	0	0	0	0	0	0	0	0	0	0;
	615	1.4	20.161918	1	0	1	2	1	1.4	1.33	0	0	0	0	0	0	0	0	0	0	0;
	623	7.6	15.2856542	5	0	1	9	1	7.6	7.22	0	0	0	0	0	0	0	0	0	0	0;
	639	9.6	-53.8471069	4	0	1	12	1	9.6	9.12	0	0	0	0	0	0	0	0	0	0	0;
	651	4.7	15.5700227	2	0	1	6	1	4.7	4.47	0	0	0	0	0	0	0	0	0	0	0;
	654	1.4	-9.30931496	1	0	1	2	1	1.4	1.33	0	0	0	0	0	0	0	0	0	0	0;
	664	6.2	32.3418464	6	0	1	7	1	6.2	5.89	0	0	0	0	0	0	0	0	0	0	0;
	670	2.7	25.2810042	2	0	1	3	1	2.7	2.57	0	0	0	0	0	0	0	0	0	0	0;
	674	1	13.1563749	0	0	1	1	1	1	0.95	0	0	0	0	0	0	0	0	0	0	0;
	688	70	-3.02238425	120	0	1	242	1	202	70	0	0	0	0	0	0	0	0	0	0	0;
	692	1.4	12.8632555	1	0	1	2	1	1.4	1.33	0	0	0	0	0	0	0	0	0	0	0;
	699	3.8	17.7642322	2	0	1	5	1	3.8	3.61	0	0	0	0	0	0	0	0	0	0	0;
	712	1.2	28.0003447	1	0	1	1	1	1.2	1.14	0	0	0	0	0	0	0	0	0	0	0;
	730	6.9	-50.9283494	3	0	1	8	1	6.9	6.56	0	0	0	0	0	0	0	0	0	0	0;
	732	1.1	7.37470744	1	0	1	1	1	1.1	1.05	0	0	0	0	0	0	0	0	0	0	0;
	735	4.1	-9.39671477	2	0	1	5	1	4.1	3.9	0	0	0	0	0	0	0	0	0	0	0;
	740	4	-8.03995246	1	0	1	5	1	4	3.8	0	0	0	0	0	0	0	0	0	0	0;
	744	134	-13.8389814	60	0	1	161	1	134	127.3	0	0	0	0	0	0	0	0	0	0	0;
	754	80	-19.7760015	30	0	1	54	1	80	10	0	0	0	0	0	0	0	0	0	0	0;
	755	85	29.4107384	80	0	1	110	1	250	85	0	0	0	0	0	0	0	0	0	0	0;
	760	3.1	24.5762205	2	0	1	4	1	3.1	2.95	0	0	0	0	0	0	0	0	0	0	0;
	766	2.1	6.62548792	1	0	1	3	1	2.1	2	0	0	0	0	0	0	0	0	0	0	0;
	784	0.7	31.4618956	0	0	1	1	1	0.7	0.67	0	0	0	0	0	0	0	0	0	0	0;
	790	49.8	-2.1434584	35	35	1	60	1	49.8	47.31	0	0	0	0	0	0	0	0	0	0	0;
	795	1.89	21.0038312	1	1	1	2	1	1.89	1.8	0	0	0	0	0	0	0	0	0	0	0;
	798	2.99	10.06034	3	3	1	4	1	2.99	2.84	0	0	0	0	0	0	0	0	0	0	0;
	814	44.92	14.0240692	42	0	1	54	1	44.92	42.67	0	0	0	0	0	0	0	0	0	0	0;
	834	55	34.2433005	83	0	1	110	1	55	23	0	0	0	0	0	0	0	0	0	0	0;
	878	2.99	23.6500458	0	0	1	4	1	2.99	2.84	0	0	0	0	0	0	0	0	0	0	0;
	884	2.49	17.0602863	0	0	1	3	1	2.49	2.37	0	0	0	0	0	0	0	0	0	0	0;
	892	31.87	47.7384957	42	6	1	38	1	31.87	30.28	0	0	0	0	0	0	0	0	0	0	0;
	895	8.96	15.6698434	7	7	1	11	1	8.96	8.51	0	0	0	0	0	0	0	0	0	0	0;
	901	3.68	27.1774178	2	2	1	4	1	3.68	3.5	0	0	0	0	0	0	0	0	0	0	0;
	910	4.58	14.6129842	3	3	1	6	1	4.58	4.35	0	0	0	0	0	0	0	0	0	0	0;
	911	370	-72.0502781	224	0	1	415	1	370	280	0	0	0	0	0	0	0	0	0	0	0;
	912	370	-83.9424643	224	0	1	415	1	370	280	0	0	0	0	0	0	0	0	0	0	0;
	914	15.93	21.0222401	10	10	1	19	1	15.93	15.13	0	0	0	0	0	0	0	0	0	0	0;
	917	2.09	17.8243442	0	0	1	3	1	2.09	1.99	0	0	0	0	0	0	0	0	0	0	0;
	919	21.91	34.6656939	12	12	1	26	1	21.91	20.81	0	0	0	0	0	0	0	0	0	0	0;
	920	1.99	27.5232123	0	0	1	2	1	1.99	1.89	0	0	0	0	0	0	0	0	0	0	0;
	929	63.73	5.75903126	50	29	1	77	1	63.73	60.54	0	0	0	0	0	0	0	0	0	0	0;
	959	2.49	25.6021623	1	1	1	3	1	2.49	2.37	0	0	0	0	0	0	0	0	0	0	0;
	968	0.7	22.5503142	0	0	1	1	1	0.7	0.67	0	0	0	0	0	0	0	0	0	0	0;
	993	3.98	12.5616333	1	1	1	5	1	3.98	3.78	0	0	0	0	0	0	0	0	0	0	0;
	994	1.99	-0.638642921	1	1	1	2	1	1.99	1.89	0	0	0	0	0	0	0	0	0	0	0;
	995	20	47.0886013	38	0	1	60	1	100	20	0	0	0	0	0	0	0	0	0	0	0;
	996	20	2.32574723	38	0	1	60	1	50	20	0	0	0	0	0	0	0	0	0	0	0;
	997	20	69.3399287	38	0	1	60	1	50	20	0	0	0	0	0	0	0	0	0	0	0;
	1004	4.28	-56.4963406	3	3	1	5	1	4.28	4.07	0	0	0	0	0	0	0	0	0	0	0;
	1024	0.1	8.74078493	0	0	1	0	1	0.1	0.1	0	0	0	0	0	0	0	0	0	0	0;
	1027	24.9	21.7515616	13	13	1	30	1	24.9	23.66	0	0	0	0	0	0	0	0	0	0	0;
	1028	2.99	10.9609721	3	3	1	4	1	2.99	2.84	0	0	0	0	0	0	0	0	0	0	0;
	1029	24.9	33.8232179	14	14	1	30	1	24.9	23.66	0	0	0	0	0	0	0	0	0	0	0;
	1053	59.76	36.0256546	53	0	1	72	1	59.76	56.77	0	0	0	0	0	0	0	0	0	0	0;
	1054	29.88	70.8241199	31	0	1	36	1	29.88	28.39	0	0	0	0	0	0	0	0	0	0	0;
	1105	7.97	-1.18665866	10	10	1	10	1	7.97	7.57	0	0	0	0	0	0	0	0	0	0	0;
	1106	22.91	-13.2067761	13	13	1	28	1	22.91	21.76	0	0	0	0	0	0	0	0	0	0	0;
	1107	10.56	30.6890189	3	3	1	13	1	10.56	10.03	0	0	0	0	0	0	0	0	0	0	0;
	1138	44.82	20.5689953	41	0	1	54	1	44.82	42.58	0	0	0	0	0	0	0	0	0	0	0;
	1140	230	28.5160908	199	-87	1	252	1	230	70	0	0	0	0	0	0	0	0	0	0	0;
	1141	94.917	33.9552262	190	-89	1	251	1	225	70	0	0	0	0	0	0	0	0	0	0	0;
	1175	37.84	35.1497958	20	20	1	45	1	37.84	35.95	0	0	0	0	0	0	0	0	0	0	0;
	1182	40	-16.8683725	125	-50	1	133	1	120	40	0	0	0	0	0	0	0	0	0	0	0;
	1183	120	25.3882752	125	-50	1	133	1	120	40	0	0	0	0	0	0	0	0	0	0	0;
	1184	120	60.2112329	125	-50	1	133	1	120	40	0	0	0	0	0	0	0	0	0	0	0;
	1191	106.56	4.78397496	129	-47	1	128	1	106.56	101.23	0	0	0	0	0	0	0	0	0	0	0;
	1192	250	18.9582178	125	-50	1	123	1	250	80	0	0	0	0	0	0	0	0	0	0	0;
	1201	99.59	43.9500862	90	0	1	120	1	99.59	94.61	0	0	0	0	0	0	0	0	0	0	0;
	1202	99.59	22.7786412	90	0	1	120	1	99.59	94.61	0	0	0	0	0	0	0	0	0	0	0;
	1203	99.59	35.3303	90	0	1	120	1	99.59	94.61	0	0	0	0	0	0	0	0	0	0	0;
	1232	51.79	9.99604384	41	0	1	62	1	51.79	49.2	0	0	0	0	0	0	0	0	0	0	0;
	1233	14.94	21.5818207	41	0	1	18	1	14.94	14.19	0	0	0	0	0	0	0	0	0	0	0;
	1244	18.92	41.9834918	20	20	1	23	1	18.92	17.97	0	0	0	0	0	0	0	0	0	0	0;
	1247	15.93	26.6748033	12	12	1	19	1	15.93	15.13	0	0	0	0	0	0	0	0	0	0	0;
	1250	197.19	36.1491914	151	0	1	237	1	197.19	187.33	0	0	0	0	0	0	0	0	0	0	0;
	1268	0.5	26.564314	0	0	1	1	1	0.5	0.48	0	0	0	0	0	0	0	0	0	0	0;
	1316	1	9.0954417	0	0	1	1	1	1	0.95	0	0	0	0	0	0	0	0	0	0	0;
	1325	1.39	8.6874419	0	0	1	2	1	1.39	1.32	0	0	0	0	0	0	0	0	0	0	0;
	1349	1.49	18.7842985	0	0	1	2	1	1.49	1.42	0	0	0	0	0	0	0	0	0	0	0;
	1356	1	27.0890005	2	2	1	1	1	1	0.95	0	0	0	0	0	0	0	0	0	0	0;
	1359	0.8	32.2078945	1	1	1	1	1	0.8	0.76	0	0	0	0	0	0	0	0	0	0	0;
	1393	12.75	13.8977043	11	0	1	15	1	12.75	12.11	0	0	0	0	0	0	0	0	0	0	0;
	1403	4.28	21.0293212	1	1	1	5	1	4.28	4.07	0	0	0	0	0	0	0	0	0	0	0;
	1416	371	-48.1731007	180	10	1	246	1	371	80	0	0	0	0	0	0	0	0	0	0	0;
	1417	120	19.7225852	120	5	1	123	1	120	80	0	0	0	0	0	0	0	0	0	0	0;
	1418	20	36.2175556	90	5	1	123	1	20	5	0	0	0	0	0	0	0	0	0	0	0;
	1426	495	-95.240439	68	27	1	106	1	495	20	0	0	0	0	0	0	0	0	0	0	0;
	1429	0.2	24.2632992	0	0	1	0	1	0.2	0.19	0	0	0	0	0	0	0	0	0	0	0;
	1469	0.6	11.3300814	0	0	1	1	1	0.6	0.57	0	0	0	0	0	0	0	0	0	0	0;
	1475	2.09	50.0800889	2	2	1	3	1	2.09	1.99	0	0	0	0	0	0	0	0	0	0	0;
	1504	31.17	-41.6786257	2	2	1	37	1	31.17	29.61	0	0	0	0	0	0	0	0	0	0	0;
	1505	48.8	-82.1064263	4	4	1	59	1	48.8	46.36	0	0	0	0	0	0	0	0	0	0	0;
	1514	2.29	27.1756762	1	1	1	3	1	2.29	2.18	0	0	0	0	0	0	0	0	0	0	0;
	1534	0.3	8.17306622	0	0	1	0	1	0.3	0.29	0	0	0	0	0	0	0	0	0	0	0;
	1536	160	22.510769	190	-89	1	251	1	225	160	0	0	0	0	0	0	0	0	0	0	0;
	1537	225	-0.953704163	203	-95	1	255	1	225	160	0	0	0	0	0	0	0	0	0	0	0;
	1538	215	-18.1782863	190	-89	1	255	1	215	70	0	0	0	0	0	0	0	0	0	0	0;
	1542	8.96	3.67928513	3	3	1	11	1	8.96	8.51	0	0	0	0	0	0	0	0	0	0	0;
	1543	1.2	37.4497142	0	0	1	1	1	1.2	1.14	0	0	0	0	0	0	0	0	0	0	0;
	1550	1.79	10.26741	1	1	1	2	1	1.79	1.7	0	0	0	0	0	0	0	0	0	0	0;
	1566	54.77	22.321445	47	20	1	66	1	54.77	52.03	0	0	0	0	0	0	0	0	0	0	0;
	1587	63.74	24.1951266	27	27	1	77	1	63.74	60.55	0	0	0	0	0	0	0	0	0	0	0;
	1600	17.43	33.7257862	3	3	1	21	1	17.43	16.56	0	0	0	0	0	0	0	0	0	0	0;
	1602	120	3.36524976	90	0	1	144	1	120	40	0	0	0	0	0	0	0	0	0	0	0;
	1603	120	4.56100203	90	0	1	144	1	120	40	0	0	0	0	0	0	0	0	0	0	0;
	1609	0.3	6.39868093	0	0	1	0	1	0.3	0.29	0	0	0	0	0	0	0	0	0	0	0;
	1617	2	0.481519726	0	0	1	2	1	2	1.9	0	0	0	0	0	0	0	0	0	0	0;
	1620	1.6	-7.15163306	0	0	1	2	1	1.6	1.52	0	0	0	0	0	0	0	0	0	0	0;
...
];

%% branch data
%	fbus	tbus	r	x	b	rateA	rateB	rateC	ratio	angle	status	angmin	angmax	Pf	Qf	Pt	Qt
mpc.branch = [
	16	1	0.00155	0.01169	0.0182	160	160	160	0	0	1	-360	360	93.0989	17.7643	-92.9591	-18.5238;
	355	1	0.00157	0.06612	0	160	160	160	1.0099	0	1	-360	360	-92.8171	-12.5406	92.9591	18.5238;
	17	2	0.00155	0.01169	0.0182	160	160	160	0	0	1	-360	360	156.6785	25.9826	-156.2868	-24.8385;
	354	2	0.00157	0.06612	0	160	160	160	1.022	0	1	-360	360	-155.8893	-8.0998	156.2868	24.8385;
	10	3	0.01068	0.07895	0.1226	274	274	274	0	0	1	-360	360	150.8329	22.2624	-148.3171	-15.5437;
	219	3	0.00165	0.06736	0	160	160	160	1.027	0	1	-360	360	-54.2192	-16.1390	54.2770	18.5006;
	220	3	0.00165	0.06736	0	160	160	160	0.9955	0	1	-360	360	-93.8843	9.3146	94.0401	-2.9569;
	7	4	0.01674	0.09711	0.14423	377	377	377	0	0	1	-360	360	-248.2969	74.2819	260.4551	-17.2715;
	11	4	0.00293	0.01599	0.02478	335	335	335	0	0	1	-360	360	181.6743	12.6004	-180.6501	-9.3469;
	14	4	0.00442	0.03223	0.04985	464	464	464	0	0	1	-360	360	199.7873	-15.2961	-197.9033	24.3588;
	16	4	0.00888	0.06665	0.08896	377	377	377	0	0	1	-360	360	226.3329	31.5734	-221.6687	-5.1753;
	22	4	0.00783	0.043	0.04962	350	350	350	0	0	1	-360	360	-157.8283	46.1495	160.0823	-38.4418;
	245	4	0.00165	0.06901	0	160	160	160	1.0594	0	1	-360	360	-116.2027	-23.4845	116.4627	34.3606;
	246	4	0.00165	0.06901	0	160	160	160	1.0448	0	1	-360	360	-63.1491	-8.4698	63.2220	11.5160;
	5	6	0.00064	0.0305	0	400	400	400	1.0435	-0.6	1	-360	360	-317.3341	-65.6756	318.0889	101.6461;
	7	5	0.00525	0.03988	0.06195	381	381	381	0	0	1	-360	360	-112.2459	-23.2914	112.9733	22.9042;
	10	5	0.01459	0.11219	0.16553	381	381	381	0	0	1	-360	360	-15.5609	7.5833	15.6329	-23.3307;
	309	5	0.00165	0.0686	0	160	160	160	1.0646	0	1	-360	360	-93.8340	-33.6201	94.0131	41.0666;
	309	5	0.00165	0.0686	0	160	160	160	1.0523	0	1	-360	360	-94.5515	-18.2450	94.7148	25.0355;
	6	8	0.00112	0.01329	0.34125	1316	1316	1316	0	0	1	-360	360	-489.3690	-7.2463	492.2066	8.4279;
	6	9	0.00299	0.03675	0.9184	1427	1427	1427	0	0	1	-360	360	150.8972	-32.2571	-150.1732	-45.0424;
	15	6	0.00298	0.03417	0.93504	1427	1427	1427	0	0	1	-360	360	-117.8422	-101.4266	118.4224	22.0061;
	31	6	0.0015	0.01506	0.4032	1385	1385	1385	0	0	1	-360	360	383.2614	135.5116	-380.6945	-148.9625;
	310	6	0.0015	0.06188	0	250	250	250	1.0613	0	1	-360	360	-281.3209	-9.7782	282.6550	64.8135;
	12	7	0.01211	0.08742	0.14017	381	381	381	0	0	1	-360	360	-46.8810	-3.6554	47.1679	-7.3822;
	13	7	0.00205	0.01326	0.02243	335	335	335	0	0	1	-360	360	3.8338	24.1174	-3.8197	-26.1410;
	19	7	0.0057	0.0407	0.06021	323	323	323	0	0	1	-360	360	-52.4246	17.8436	52.6152	-22.1685;
	21	7	0.00093	0.00651	0.01113	160	160	160	0	0	1	-360	360	-132.4491	41.7452	132.6399	-41.4569;
	29	7	0.01269	0.07498	0.1302	362	362	362	0	0	1	-360	360	175.1314	16.3555	-171.1729	-5.5912;
	321	7	0.00041	0.03368	0	250	250	250	1.0323	0	1	-360	360	-164.2489	0.7600	164.3672	8.9559;
	322	7	0.00165	0.06775	0	160	160	160	1.0569	0	1	-360	360	-138.3749	-27.5876	138.7452	42.7933;
	8	18	0.00336	0.03977	1.02163	1316	1316	1316	0	0	1	-360	360	-492.2066	-8.4279	500.7556	9.5662;
	332	9	0.00087	0.05244	-0.02144	330	330	330	1.0781	0	1	-360	360	-149.9445	-29.3031	150.1732	45.0424;
	171	10	0.01409	0.10413	0.15972	464	464	464	0	0	1	-360	360	-144.5008	-3.5053	147.6224	11.0569;
	346	10	0.00124	0.06839	0	160	160	160	1.0054	0	1	-360	360	-8.5581	-7.6318	8.5598	7.7227;
	347	10	0.00124	0.06839	0	160	160	160	1.024	0	1	-360	360	-96.1848	-28.5148	96.3157	35.7324;
	16	11	0.0057	0.03952	0.07553	464	464	464	0	0	1	-360	360	307.7706	34.9295	-302.2860	-4.2659;
	17	11	0.0057	0.03952	0.07553	464	464	464	0	0	1	-360	360	346.6300	34.4467	-339.6980	6.2520;
	111	11	0.01068	0.06196	0.09496	394	394	394	0	0	1	-360	360	-208.3146	88.3913	213.8757	-65.3857;
	352	11	0.00165	0.06901	0	160	160	160	1.0412	0	1	-360	360	-144.6498	-4.2609	145.0221	19.8297;
	353	11	0.00165	0.06901	0	160	160	160	1.0559	0	1	-360	360	-101.2166	-22.7992	101.4119	30.9696;
	140	12	0.01465	0.10589	0.17085	464	464	464	0	0	1	-360	360	93.5244	16.0893	-92.1541	-22.6815;
	359	12	0.00155	0.06612	0	160	160	160	1.0395	0	1	-360	360	-93.5786	1.0328	93.7253	5.2245;
	360	12	0.00157	0.06612	0	160	160	160	1.059	0	1	-360	360	-45.2677	-19.3380	45.3098	21.1124;
	29	13	0.01345	0.08114	0.14113	339	339	339	0	0	1	-360	360	161.7308	10.3637	-158.1719	-2.6266;
	365	13	0.00165	0.06901	0	160	160	160	1.0312	0	1	-360	360	-70.4534	-0.6380	70.5405	4.2808;
	366	13	0.00165	0.06901	0	160	160	160	0.9872	0	1	-360	360	-83.6635	31.3779	83.7976	-25.7716;
	17	14	0.00384	0.02853	0.04588	464	464	464	0	0	1	-360	360	349.0925	73.8270	-344.1904	-41.8567;
	367	14	0.00157	0.06798	0	160	160	160	1.0664	0	1	-360	360	-88.9784	-14.4197	89.1180	20.4640;
	368	14	0.00165	0.06901	0	160	160	160	1.0777	0	1	-360	360	-55.2079	-33.4578	55.2851	36.6887;
	18	15	0.00358	0.04262	1.0944	1662	1662	1662	0	0	1	-360	360	698.4329	120.4594	-679.8707	-3.1990;
	15	165	0.00207	0.02474	0.664	831	831	831	0	0	1	-360	360	603.9500	4.0714	-595.4922	38.1005;
	374	15	0.0015	0.06188	0	250	250	250	1.1502	0	1	-360	360	-192.9647	-67.6246	193.7630	100.5542;
	16	18	0.00036	0.02519	0	500	500	500	1.0605	0	1	-360	360	-18.9919	-213.2477	19.1775	226.2329;
	16	73	0.00909	0.0624	0.11142	464	464	464	0	0	1	-360	360	56.9096	-27.2367	-56.5725	18.3073;
	17	18	0.00036	0.02519	0	500	500	500	1.0607	0	1	-360	360	40.5881	-214.5037	-40.3950	228.0108;
	17	74	0.00868	0.06405	0.09699	464	464	464	0	0	1	-360	360	110.0109	-24.9957	-108.9252	23.2503;
	20	18	0.00063	0.00749	0.39226	1427	1427	1427	0	0	1	-360	360	-501.7807	-35.7298	503.3850	15.7771;
	75	18	0.00219	0.02369	0.59584	1434	1434	1434	0	0	1	-360	360	-188.2819	-70.3576	189.1211	20.7474;
	18	76	0.00137	0.01625	0.41184	1662	1662	1662	0	0	1	-360	360	275.8018	55.0922	-274.6812	-82.3673;
	18	101	0.00231	0.02769	0.70144	1662	1662	1662	0	0	1	-360	360	353.0395	0.5935	-350.1310	-34.9494;
	124	19	0.01696	0.12366	0.19699	464	464	464	0	0	1	-360	360	68.4180	4.2137	-67.5906	-17.3833;
	425	19	0.00165	0.06818	0	160	160	160	1.0241	0	1	-360	360	-119.7649	10.8019	120.0151	-0.4603;
	67	20	0.00331	0.03425	0.85888	831	831	831	0	0	1	-360	360	-274.2923	11.9888	276.8825	-70.6366;
	447	20	0.00137	0.06119	-0.01504	250	250	250	1.0796	0	1	-360	360	-131.0081	-29.6466	131.2711	42.8482;
	448	20	0.00137	0.06119	-0.01504	250	250	250	1.0923	0	1	-360	360	-93.4512	-54.2302	93.6271	63.5181;
	502	21	0.00165	0.07107	0	160	160	160	0.9922	0	1	-360	360	-132.1114	56.2914	132.4491	-41.7452;
	112	22	0.00465	0.02618	0.02962	362	362	362	0	0	1	-360	360	-113.2155	123.1570	114.5342	-118.6157;
	526	22	0.00165	0.06901	0	160	160	160	1.0685	0	1	-360	360	-50.5491	-48.8544	50.6423	52.7510;
	527	22	0.00165	0.06901	0	160	160	160	1.0424	0	1	-360	360	7.3559	-19.3926	-7.3482	19.7152;
	37	23	0.01163	0.07031	0.1058	394	394	394	0	0	1	-360	360	-28.1014	0.6660	28.1990	-10.4540;
	46	23	0.00837	0.04868	0.07348	457	457	457	0	0	1	-360	360	19.6075	13.3280	-19.5512	-20.2756;
	53	23	0.01122	0.06558	0.09835	274	274	274	0	0	1	-360	360	107.8807	-22.9913	-106.5036	21.4242;
	540	23	0.0014	0.0668	0	160	160	160	1.0182	0	1	-360	360	-97.7178	-2.7211	97.8558	9.3053;
	54	24	0.00769	0.05727	0.08789	160	160	160	0	0	1	-360	360	51.4425	-5.9650	-51.2362	-1.1564;
	545	24	0.00151	0.06715	0	160	160	160	1.0161	0	1	-360	360	-51.1958	0.6388	51.2362	1.1564;
	41	25	0.00556	0.04145	0.0636	274	274	274	0	0	1	-360	360	100.2608	1.1657	-99.7008	-3.3100;
	53	25	0.00452	0.03368	0.05169	464	464	464	0	0	1	-360	360	-135.9309	1.4460	136.7880	-0.1306;
	54	25	0.00019	0.0014	0.00213	464	464	464	0	0	1	-360	360	98.8411	8.1369	-98.8222	-8.2078;
	564	25	0.00157	0.07808	0	160	160	160	1.0276	0	1	-360	360	-61.6722	-8.5260	61.7350	11.6483;
	38	26	0.00698	0.05196	0.07967	160	160	160	0	0	1	-360	360	71.6681	-1.9179	-71.3026	-3.1387;
	568	26	0.00149	0.06616	0	160	160	160	1.013	0	1	-360	360	-71.2244	0.3324	71.3026	3.1387;
	28	27	0	0.0001	0	876	876	876	0	0	1	-360	360	91.2176	-22.8563	-91.2176	22.8655;
	33	27	0.0024	0.01494	0.02253	160	160	160	0	0	1	-360	360	-107.8364	-11.2732	108.1305	10.9371;
	48	27	0.01213	0.06215	0.09371	362	362	362	0	0	1	-360	360	-157.5168	44.8211	160.8968	-36.6119;
	27	74	0.01116	0.07231	0.10367	304	304	304	0	0	1	-360	360	-177.8096	2.8094	181.4693	10.6502;
	47	28	0.00248	0.01798	0.02759	464	464	464	0	0	1	-360	360	-83.8740	2.6934	84.0555	-4.0379;
	28	88	0.01488	0.08161	0.1148	362	362	362	0	0	1	-360	360	-175.2732	26.8942	180.1676	-11.2649;
	30	29	0	0.0001	0	876	876	876	0	0	1	-360	360	-9.7500	0.0000	9.7500	0.0000;
	29	32	0.00034	0.02097	0	500	500	500	1.0619	0	1	-360	360	-384.4161	-237.5071	385.1989	285.7897;
	45	29	0.00545	0.04021	0.06699	464	464	464	0	0	1	-360	360	-52.4102	4.3286	52.5631	-9.8994;
	48	29	0.00574	0.04283	0.06573	464	464	464	0	0	1	-360	360	-0.6215	-28.6467	0.6595	22.4294;
	613	29	0.00157	0.06775	0	160	160	160	1.0016	0	1	-360	360	-28.5884	-1.4149	28.6013	1.9718;
	46	30	0.00545	0.04021	0.06699	464	464	464	0	0	1	-360	360	-52.3117	4.2693	52.4640	-9.8444;
	49	30	0.00707	0.04541	0.06931	362	362	362	0	0	1	-360	360	-1.2649	-27.1830	1.3059	20.5915;
	32	31	0	0.0001	0	1593	1593	1593	0	0	1	-360	360	-709.6569	-416.4186	709.6569	417.0962;
	39	31	0.00176	0.02144	0.57344	1385	1385	1385	0	0	1	-360	360	114.1933	-86.0682	-113.8982	32.9397;
	36	32	0.00167	0.0189	0.54176	498	498	498	0	0	1	-360	360	-322.2828	-158.3615	324.4580	130.6289;
	615	33	0.00163	0.06946	0	160	160	160	1.0291	0	1	-360	360	-107.6363	-2.7452	107.8364	11.2732;
	35	34	0	0.0001	0	1593	1593	1593	0	0	1	-360	360	-156.0239	3.3895	156.0239	-3.3654;
	34	51	0.00113	0.01406	0.37488	1385	1385	1385	0	0	1	-360	360	-231.4878	67.2638	232.1702	-96.3160;
	183	34	0.00188	0.02287	0.6432	1385	1385	1385	0	0	1	-360	360	-75.3395	0.0413	75.4638	-63.8984;
	183	35	0.00188	0.02287	0.6432	1385	1385	1385	0	0	1	-360	360	-74.6605	-0.0413	74.7828	-63.8399;
	617	35	0.00135	0.06052	0	250	250	250	1.0654	0	1	-360	360	-81.1041	-54.3082	81.2411	60.4504;
	644	36	0.00135	0.06052	0	250	250	250	1.1003	0	1	-360	360	-161.7534	-60.7325	162.2317	82.1755;
	645	36	0.00153	0.06156	0	250	250	250	1.0971	0	1	-360	360	-159.5361	-55.4635	160.0511	76.1860;
	38	37	0	0.0001	0	876	876	876	0	0	1	-360	360	19.4865	-10.1492	-19.4865	10.1497;
	663	37	0.00157	0.06616	0	160	160	160	1.0009	0	1	-360	360	-47.5498	12.4209	47.5879	-10.8157;
	55	38	0.00316	0.02076	0.03146	394	394	394	0	0	1	-360	360	91.4282	-13.3592	-91.1547	12.0671;
	40	39	0	0.0001	0	1593	1593	1593	0	0	1	-360	360	194.2551	-43.4803	-194.2551	43.5208;
	682	39	0.00139	0.05984	0	250	250	250	1.0603	0	1	-360	360	-79.9450	-37.5197	80.0618	42.5474;
	44	40	0.00109	0.01277	0.34176	1385	1385	1385	0	0	1	-360	360	376.2259	45.1983	-374.6408	-60.4323;
	679	40	0.0014	0.06235	0	250	250	250	1.0996	0	1	-360	360	-179.7655	-76.2921	180.3857	103.9126;
	42	41	0	0.0001	0	876	876	876	0	0	1	-360	360	-240.9281	0.0290	240.9281	0.0290;
	41	43	0.00081	0.03	0	400	400	400	1.0377	0	1	-360	360	-87.9061	-113.2072	88.0853	119.8437;
	80	41	0.00372	0.0438	0.10096	609	609	609	0	0	1	-360	360	65.4358	-14.2107	-65.2727	6.0551;
	47	42	0.00882	0.06564	0.10066	274	274	274	0	0	1	-360	360	-62.8703	-23.0984	63.2628	16.1400;
	54	42	0.00355	0.02643	0.04056	392	392	392	0	0	1	-360	360	-150.2835	-2.1719	151.0954	4.1852;
	689	42	0.00145	0.06839	0	160	160	160	1.0037	0	1	-360	360	-84.4757	-1.1307	84.5799	6.0482;
	44	43	0	0.0001	0	1593	1593	1593	0	0	1	-360	360	-247.4866	0.0306	247.4866	0.0306;
	99	43	0.00169	0.01994	0.50624	831	831	831	0	0	1	-360	360	-50.3451	-83.0225	50.4481	34.2517;
	50	44	0.00094	0.01097	0.29376	1662	1662	1662	0	0	1	-360	360	-256.6561	-23.1180	257.2807	1.1411;
	46	45	0	0.0001	0	876	876	876	0	0	1	-360	360	32.7042	-17.5973	-32.7042	17.5986;
	49	45	0.01048	0.06097	0.09205	394	394	394	0	0	1	-360	360	32.6972	-27.5764	-32.5256	19.4705;
	706	47	0.00157	0.06775	0	160	160	160	1.0249	0	1	-360	360	-73.2036	-9.6332	73.2942	13.5416;
	707	47	0.00165	0.06775	0	160	160	160	1.0201	0	1	-360	360	-73.3568	-3.0347	73.4500	6.8633;
	49	48	0	0.0001	0	876	876	876	0	0	1	-360	360	-94.4417	34.8621	94.4417	-34.8518;
	717	48	0.00163	0.06783	0	160	160	160	1.023	0	1	-360	360	-63.6232	-15.6215	63.6966	18.6773;
	716	49	0.00143	0.06831	0	160	160	160	1.0238	0	1	-360	360	-62.9455	-16.8479	63.0094	19.8972;
	51	50	0	0.0001	0	1593	1593	1593	0	0	1	-360	360	-353.0948	36.7382	353.0948	-36.6112;
	98	50	0.0015	0.01788	0.4512	831	831	831	0	0	1	-360	360	100.0792	-79.3181	-99.8744	37.3820;
	100	50	0.00469	0.05544	1.4048	831	831	831	0	0	1	-360	360	121.9087	-91.2716	-121.1676	-38.0715;
	726	50	0.00139	0.0608	0	250	250	250	1.0815	0	1	-360	360	-124.3348	-48.6712	124.6034	60.4187;
	727	51	0.0014	0.06235	0	250	250	250	1.0819	0	1	-360	360	-120.6683	-48.1626	120.9246	59.5778;
	53	52	0.00151	0.00878	0.01316	160	160	160	0	0	1	-360	360	28.0501	21.5453	-28.0303	-22.7104;
	754	52	0.00163	0.06754	0	160	160	160	1.0317	0	1	-360	360	-28.0084	-21.8046	28.0303	22.7104;
	181	55	0.01434	0.08353	0.12603	394	394	394	0	0	1	-360	360	175.0000	-12.4106	-170.6030	25.5330;
	778	55	0.00161	0.06762	0	160	160	160	0.9979	0	1	-360	360	-79.0697	16.5922	79.1749	-12.1738;
	74	56	0.00207	0.01281	0.02052	394	394	394	0	0	1	-360	360	109.4105	44.1106	-109.1239	-44.3974;
	796	56	0.00207	0.06777	-0.003	160	160	160	1.0389	0	1	-360	360	-108.8358	-34.6733	109.1239	44.3974;
	81	57	0.00083	0.00496	0.00726	137	137	137	0	0	1	-360	360	22.9853	10.2694	-22.9800	-10.9600;
	80	58	0.00083	0.00496	0.00726	137	137	137	0	0	1	-360	360	21.9843	5.0928	-21.9800	-5.7900;
	63	59	0.00207	0.01405	0.02265	362	362	362	0	0	1	-360	360	58.8744	20.6487	-58.7928	-22.3505;
	82	59	0.01116	0.07045	0.11606	362	362	362	0	0	1	-360	360	14.4309	-8.9612	-14.4062	-2.3826;
	821	59	0.00165	0.06798	-0.00319	160	160	160	1.0178	0	1	-360	360	-73.0998	-20.3344	73.1990	24.7331;
	60	85	0.01095	0.0593	0.08441	362	362	362	0	0	1	-360	360	-64.5410	2.7134	65.0059	-8.6055;
	104	60	0.00599	0.04091	0.07212	464	464	464	0	0	1	-360	360	95.3059	-6.5044	-94.7613	3.0388;
	834	60	0.00145	0.06921	-0.00532	160	160	160	0.9936	0	1	-360	360	-87.3530	19.5843	87.4675	-13.5823;
	836	60	0.00372	0.12583	-0.00242	100	100	100	1.0154	0	1	-360	360	-71.6392	-0.9744	71.8348	7.8301;
	62	61	0	0.0001	0	876	876	876	0	0	1	-360	360	33.1782	-23.1755	-33.1782	23.1771;
	64	61	0.00517	0.03843	0.05876	464	464	464	0	0	1	-360	360	-74.8491	10.8798	75.1486	-14.5235;
	109	61	0.00083	0.0062	0.00958	464	464	464	0	0	1	-360	360	249.0000	-15.6403	-248.4835	18.5416;
	184	61	0.01219	0.07066	0.11742	274	274	274	0	0	1	-360	360	-201.2483	45.9829	206.5131	-27.1952;
	82	62	0.00165	0.01095	0.01955	464	464	464	0	0	1	-360	360	-214.5383	-1.8564	215.3054	5.0035;
	110	62	0.00083	0.0062	0.00949	464	464	464	0	0	1	-360	360	249.0000	-15.2624	-248.4836	18.1720;
	71	63	0.00475	0.03079	0.04879	362	362	362	0	0	1	-360	360	-180.1065	15.9897	181.6775	-10.6632;
	91	63	0.00455	0.02769	0.04608	394	394	394	0	0	1	-360	360	-122.8339	3.3521	123.5282	-3.7129;
	94	63	0.00186	0.0126	0.02236	464	464	464	0	0	1	-360	360	-184.6832	28.1832	185.3337	-26.0132;
	96	63	0.00826	0.04236	0.06118	362	362	362	0	0	1	-360	360	-62.8753	10.1071	63.2162	-14.4771;
	64	69	0.00434	0.02975	0.05266	464	464	464	0	0	1	-360	360	113.4442	-9.8784	-112.8834	8.4682;
	79	64	0.00351	0.02438	0.03998	362	362	362	0	0	1	-360	360	-158.8291	9.2261	159.7255	-6.9837;
	93	64	0.00186	0.0126	0.02236	464	464	464	0	0	1	-360	360	-160.0364	24.1964	160.5247	-23.1246;
	95	64	0.00826	0.04236	0.06118	362	362	362	0	0	1	-360	360	-55.5191	8.4739	55.7847	-13.2298;
	90	65	0.00785	0.04132	0.06389	394	394	394	0	0	1	-360	360	-43.7143	11.0238	43.8806	-16.5045;
	65	91	0.00227	0.01446	0.02585	394	394	394	0	0	1	-360	360	-57.2706	14.4845	57.3513	-16.5340;
	66	67	0.00031	0.02094	0	500	500	500	1.0616	0	1	-360	360	-174.3684	-158.5471	174.5536	171.0542;
	66	68	0.00248	0.02355	0.04763	457	457	457	0	0	1	-360	360	-150.2342	87.1223	150.9583	-85.1584;
	152	66	0.01033	0.08285	0.13959	464	464	464	0	0	1	-360	360	-313.6055	3.0072	324.6026	71.4247;
	138	67	0.00194	0.02056	0.51584	866	866	866	0	0	1	-360	360	-956.9834	-103.2251	977.1917	268.7638;
	911	67	0.00156	0.06269	-0.00992	250	250	250	1.0656	0	1	-360	360	114.8617	-89.9880	-114.4832	106.1329;
	912	67	0.00156	0.06269	-0.00992	250	250	250	1.066	0	1	-360	360	73.6177	-92.1152	-73.3697	103.0106;
	68	78	0.00579	0.04153	0.06621	464	464	464	0	0	1	-360	360	-99.3310	44.5552	100.0249	-46.2109;
	978	68	0.00165	0.06694	-0.0031	160	160	160	1.0083	0	1	-360	360	23.4243	-22.2532	-23.4067	23.2772;
	979	68	0.00145	0.06653	-0.00319	160	160	160	1.006	0	1	-360	360	28.2362	-16.2904	-28.2206	17.3260;
	83	69	0.00145	0.00992	0.01762	464	464	464	0	0	1	-360	360	0.2551	21.1220	-0.2480	-22.8321;
	995	69	0.00145	0.0655	-0.00252	160	160	160	1.0107	0	1	-360	360	-99.9087	-7.0498	100.0573	14.0117;
	996	69	0.00145	0.07045	-0.00252	160	160	160	1.0025	0	1	-360	360	-13.0716	0.0196	13.0741	0.3522;
	70	73	0.00145	0.00971	0.01626	457	457	457	0	0	1	-360	360	-162.0103	-33.5051	162.4037	34.4930;
	107	70	0.00062	0.00413	0.00697	457	457	457	0	0	1	-360	360	-161.8416	-33.0815	162.0103	33.5051;
	72	71	0	0.0001	0	876	876	876	0	0	1	-360	360	0.0000	0.0000	0.0000	0.0000;
	86	71	0.00165	0.00971	0.01423	362	362	362	0	0	1	-360	360	-85.0435	60.5556	85.2248	-60.9055;
	1059	71	0.00145	0.06983	-0.00232	160	160	160	1.0193	0	1	-360	360	-54.9251	-24.4267	54.9801	27.3031;
	1060	71	0.00165	0.06777	-0.00281	160	160	160	0.9558	0	1	-360	360	-39.8700	-16.0400	39.9016	17.6127;
	73	75	0.00075	0.02444	-0.00832	330	330	330	1.0544	1.7	1	-360	360	-106.1635	-104.1253	106.3452	110.8321;
	87	73	0.00393	0.02851	0.04501	464	464	464	0	0	1	-360	360	-0.2213	-55.0344	0.3323	51.3250;
	74	76	0.00075	0.02469	-0.008	330	330	330	1.0606	1.7	1	-360	360	-175.6251	-130.3331	176.0247	144.2342;
	74	108	0.00083	0.00517	0.00871	464	464	464	0	0	1	-360	360	-6.3294	52.3220	6.3526	-53.0568;
	76	75	0	0.0001	0	1593	1593	1593	0	0	1	-360	360	-81.9367	40.4831	81.9367	-40.4745;
	76	105	0.00244	0.02756	0.768	845	845	845	0	0	1	-360	360	180.5932	-102.3501	-179.6662	37.1716;
	84	77	0.00393	0.02665	0.04617	457	457	457	0	0	1	-360	360	109.7459	1.4958	-109.2720	-2.8766;
	85	77	0.00186	0.01384	0.02284	464	464	464	0	0	1	-360	360	10.8876	32.8119	-10.8639	-34.9087;
	1095	77	0.00165	0.06694	-0.0029	160	160	160	1.0162	0	1	-360	360	-83.7564	-25.0199	83.8892	30.6894;
	1096	77	0.00145	0.06736	-0.00658	160	160	160	1.0085	0	1	-360	360	-36.2268	-5.5226	36.2467	7.0959;
	78	103	0.00496	0.03368	0.05963	464	464	464	0	0	1	-360	360	-191.2608	14.8383	193.1118	-8.1984;
	1106	78	0.00145	0.06839	-0.00319	160	160	160	1.0272	0	1	-360	360	-91.0996	-24.6318	91.2359	31.3726;
	88	79	0.0031	0.02335	0.0362	464	464	464	0	0	1	-360	360	-158.0397	11.5876	158.8291	-9.2261;
	81	80	0	0.0001	0	876	876	876	0	0	1	-360	360	8.4702	3.5049	-8.4702	-3.5049;
	80	96	0.01591	0.0876	0.11684	362	362	362	0	0	1	-360	360	-163.3502	34.4106	167.8712	-21.1787;
	1114	80	0.00165	0.06694	-0.00232	160	160	160	0.9876	0	1	-360	360	-84.2743	27.1325	84.4003	-21.7879;
	93	81	0.01777	0.11674	0.16359	362	362	362	0	0	1	-360	360	130.1657	-16.1166	-127.1437	19.6434;
...
];

%%-----  OPF Data  -----%%
%% generator cost data
%	1	startup	shutdown	n	x1	y1	...	xn	yn
%	2	startup	shutdown	n	c(n-1)	...	c0
mpc.gencost = [
	2	0	0	3	0	117.95	0;
	2	0	0	3	0	48.89	0;
	2	0	0	3	0	98.47	0;
	2	0	0	3	0	128.73	0;
	2	0	0	3	0	158.23	0;
	2	0	0	3	0	165.62	0;
	2	0	0	3	0	71.22	0;
	2	0	0	3	0	102.25	0;
	2	0	0	3	0	147.83	0;
	2	0	0	3	0	75.37	0;
	2	0	0	3	0	86.01	0;
	2	0	0	3	0	0	0;
	2	0	0	3	0	68.74	0;
	2	0	0	3	0	81.91	0;
	2	0	0	3	0	81.88	0;
	2	0	0	3	0	58.78	0;
	2	0	0	3	0	85.57	0;
	2	0	0	3	0	101.38	0;
	2	0	0	3	0	122.43	0;
	2	0	0	3	0	96.62	0;
	2	0	0	3	0	106.73	0;
	2	0	0	3	0	0	0;
	2	0	0	3	0	151.94	0;
	2	0	0	3	0	107.51	0;
	2	0	0	3	0	103.53	0;
	2	0	0	3	0	0	0;
	2	0	0	3	0	0	0;
	2	0	0	3	0	136.48	0;
	2	0	0	3	0	157.46	0;
	2	0	0	3	0	83.97	0;
	2	0	0	3	0	170.74	0;
	2	0	0	3	0	80.91	0;
	2	0	0	3	0	147.6	0;
	2	0	0	3	0	158.75	0;
	2	0	0	3	0	146.94	0;
	2	0	0	3	0	96.32	0;
	2	0	0	3	0	0	0;
	2	0	0	3	0	0	0;
	2	0	0	3	0	0	0;
	2	0	0	3	0	0	0;
	2	0	0	3	0	0	0;
	2	0	0	3	0	0	0;
	2	0	0	3	0	0	0;
	2	0	0	3	0	0	0;
	2	0	0	3	0	0	0;
	2	0	0	3	0	0	0;
	2	0	0	3	0	0	0;
	2	0	0	3	0	0	0;
	2	0	0	3	0	0	0;
	2	0	0	3	0	0	0;
	2	0	0	3	0	0	0;
	2	0	0	3	0	0	0;
	2	0	0	3	0	0	0;
	2	0	0	3	0	0	0;
	2	0	0	3	0	0	0;
	2	0	0	3	0	0	0;
	2	0	0	3	0	0	0;
	2	0	0	3	0	0	0;
	2	0	0	3	0	0	0;
	2	0	0	3	0	0	0;
	2	0	0	3	0	0	0;
	2	0	0	3	0	0	0;
	2	0	0	3	0	0	0;
	2	0	0	3	0	0	0;
	2	0	0	3	0	134.98	0;
	2	0	0	3	0	0	0;
	2	0	0	3	0	0	0;
	2	0	0	3	0	0	0;
	2	0	0	3	0	0	0;
	2	0	0	3	0	0	0;
	2	0	0	3	0	0	0;
	2	0	0	3	0	0	0;
	2	0	0	3	0	0	0;
	2	0	0	3	0	0	0;
	2	0	0	3	0	0	0;
	2	0	0	3	0	0	0;
	2	0	0	3	0	0	0;
	2	0	0	3	0	0	0;
	2	0	0	3	0	0	0;
	2	0	0	3	0	0	0;
	2	0	0	3	0	0	0;
	2	0	0	3	0	0	0;
	2	0	0	3	0	0	0;
	2	0	0	3	0	0	0;
	2	0	0	3	0	0	0;
	2	0	0	3	0	0	0;
	2	0	0	3	0	0	0;
	2	0	0	3	0	0	0;
	2	0	0	3	0	0	0;
	2	0	0	3	0	0	0;
	2	0	0	3	0	0	0;
	2	0	0	3	0	142.94	0;
	2	0	0	3	0	128.22	0;
	2	0	0	3	0	0	0;
	2	0	0	3	0	0	0;
	2	0	0	3	0	0	0;
	2	0	0	3	0	0	0;
	2	0	0	3	0	0	0;
	2	0	0	3	0	0	0;
	2	0	0	3	0	0	0;
	2	0	0	3	0	0	0;
	2	0	0	3	0	141.73	0;
	2	0	0	3	0	0	0;
	2	0	0	3	0	0	0;
	2	0	0	3	0	0	0;
	2	0	0	3	0	0	0;
	2	0	0	3	0	0	0;
	2	0	0	3	0	0	0;
	2	0	0	3	0	0	0;
	2	0	0	3	0	0	0;
	2	0	0	3	0	100.82	0;
	2	0	0	3	0	151.9	0;
	2	0	0	3	0	0	0;
	2	0	0	3	0	0	0;
	2	0	0	3	0	0	0;
	2	0	0	3	0	0	0;
	2	0	0	3	0	0	0;
	2	0	0	3	0	0	0;
	2	0	0	3	0	0	0;
	2	0	0	3	0	114.15	0;
	2	0	0	3	0	0	0;
	2	0	0	3	0	0	0;
	2	0	0	3	0	0	0;
	2	0	0	3	0	0	0;
	2	0	0	3	0	0	0;
	2	0	0	3	0	0	0;
	2	0	0	3	0	87.95	0;
	2	0	0	3	0	130.25	0;
	2	0	0	3	0	0	0;
	2	0	0	3	0	0	0;
	2	0	0	3	0	0	0;
	2	0	0	3	0	0	0;
	2	0	0	3	0	0	0;
	2	0	0	3	0	0	0;
	2	0	0	3	0	0	0;
	2	0	0	3	0	0	0;
	2	0	0	3	0	0	0;
	2	0	0	3	0	145.97	0;
	2	0	0	3	0	137.58	0;
	2	0	0	3	0	147.36	0;
	2	0	0	3	0	0	0;
	2	0	0	3	0	0	0;
	2	0	0	3	0	0	0;
	2	0	0	3	0	0	0;
	2	0	0	3	0	0	0;
	2	0	0	3	0	0	0;
	2	0	0	3	0	0	0;
	2	0	0	3	0	0	0;
	2	0	0	3	0	0	0;
	2	0	0	3	0	0	0;
	2	0	0	3	0	0	0;
	2	0	0	3	0	82.92	0;
	2	0	0	3	0	133.59	0;
	2	0	0	3	0	0	0;
	2	0	0	3	0	152.95	0;
	2	0	0	3	0	67.35	0;
	2	0	0	3	0	134.93	0;
	2	0	0	3	0	0	0;
	2	0	0	3	0	61.32	0;
	2	0	0	3	0	0	0;
	2	0	0	3	0	0	0;
	2	0	0	3	0	0	0;
	2	0	0	3	0	0	0;
	2	0	0	3	0	0	0;
	2	0	0	3	0	0	0;
	2	0	0	3	0	0	0;
	2	0	0	3	0	0	0;
	2	0	0	3	0	0	0;
	2	0	0	3	0	0	0;
	2	0	0	3	0	0	0;
	2	0	0	3	0	0	0;
	2	0	0	3	0	0	0;
	2	0	0	3	0	0	0;
	2	0	0	3	0	0	0;
	2	0	0	3	0	0	0;
	2	0	0	3	0	61.4	0;
	2	0	0	3	0	114.99	0;
	2	0	0	3	0	122.64	0;
	2	0	0	3	0	118.84	0;
	2	0	0	3	0	0	0;
	2	0	0	3	0	0	0;
	2	0	0	3	0	0	0;
	2	0	0	3	0	0	0;
	2	0	0	3	0	0	0;
	2	0	0	3	0	0	0;
	2	0	0	3	0	0	0;
	2	0	0	3	0	143.83	0;
	2	0	0	3	0	67.48	0;
	2	0	0	3	0	88	0;
	2	0	0	3	0	0	0;
	2	0	0	3	0	0	0;
	2	0	0	3	0	0	0;
	2	0	0	3	0	0	0;
	2	0	0	3	0	0	0;
	2	0	0	3	0	0	0;
	2	0	0	3	0	129.86	0;
	2	0	0	3	0	108.16	0;
	2	0	0	3	0	0	0;
	2	0	0	3	0	0	0;
	2	0	0	3	0	0	0;
...
];
